data/grid-data/ACTIVSg200/ACTIVSg200.EPC
title
This is a synthetic power system model that does not represent the actual grid. It was developed as part of the US ARPA-E Grid Data research project and contains no CEII.
Reference: A.B. Birchfield, T. Xu, K.M. Gegner, K.S. Shetye, and T.J. Overbye, "Grid Structural Characteristics as Validation Criteria for Synthetic Networks," to appear, IEEE Transactions on Power Systems, 2017.
!
comments
!
solution parameters
tap    1    tcul  enabled/disabled
phas   1    ps    enabled/disabled
area   1    area  enabled/disabled
svd    1    svd   enabled/disabled
dctap  1    dc    enabled/disabled
gcd    0    gcd   enabled/disabled
jump  0.000200    jumper threshold
toler   0.1000    newton tolerance
sbase 100.0000    system mva base
!
substation data  [  111]           no  name
      1  "CREVE COEUR"    : 40.642116 -89.599560
      2  "ILLIOPOLIS"    : 39.866030 -89.251291
      3  "PAXTON 2"    : 40.378337 -88.105151
      4  "PEORIA 9"    : 40.712882 -89.576722
      5  "PEORIA 8"    : 40.705729 -89.653624
      6  "LOVINGTON"    : 39.801351 -88.730259
      7  "DECATUR 3"    : 39.817070 -88.926317
      8  "MASON CITY"    : 40.172880 -89.558457
      9  "BETHANY"    : 39.529684 -88.800594
     10  "RANKIN"    : 40.438957 -87.890723
     11  "WINDSOR"    : 39.440561 -88.615209
     12  "PEKIN 2"    : 40.539343 -89.618320
     13  "HEYWORTH"    : 40.381256 -89.065969
     14  "DECATUR 2"    : 39.827583 -89.047800
     15  "LINCOLN"    : 40.214556 -89.299252
     16  "SHERMAN"    : 39.958048 -89.516172
     17  "URBANA 2"    : 40.108966 -88.211024
     18  "SPRINGFIELD "    : 39.910073 -89.687708
     19  "CARLOCK"    : 40.610446 -89.122717
     20  "PLEASANT PLA"    : 39.945973 -89.923096
     21  "LE ROY"    : 40.339682 -88.754301
     22  "DECATUR 1"    : 39.844096 -88.952216
     23  "RANTOUL 2"    : 40.312222 -88.159444
     24  "MACON"    : 39.763355 -88.989322
     25  "ELLSWORTH 2"    : 40.464516 -88.745295
     26  "MOUNT PULASK"    : 39.981254 -89.283539
     27  "WAPELLA"    : 40.232881 -89.091171
     28  "ROANOKE"    : 40.858083 -89.135201
     29  "GREEN VALLEY"    : 40.414441 -89.666079
     30  "BLOOMINGTON "    : 40.402310 -88.840561
     31  "SPRINGFIELD "    : 39.818055 -89.455965
     32  "BEMENT"    : 39.941961 -88.805357
     33  "PAXTON 1"    : 40.464050 -88.021517
     34  "MOUNT ZION"    : 39.770300 -88.869700
     35  "RANTOUL 1"    : 40.298873 -88.300263
     36  "BRIMFIELD"    : 40.794200 -89.843600
     37  "WELDON"    : 40.033078 -88.716508
     38  "GIBSON CITY "    : 40.467849 -88.351997
     39  "MINIER"    : 40.350757 -89.323483
     40  "HUDSON"    : 40.619486 -88.991155
     41  "ATHENS"    : 39.997432 -89.665941
     42  "PEORIA HEIGH"    : 40.746726 -89.571641
     43  "SPRINGFIELD "    : 39.773498 -89.683840
     44  "CLINTON 3"    : 40.120833 -88.961111
     45  "TUSCOLA 2"    : 39.798175 -88.349771
     46  "KENNEY"    : 40.092849 -89.116222
     47  "MANSFIELD"    : 40.137717 -88.629166
     48  "MANITO"    : 40.358139 -89.896566
     49  "DUNLAP"    : 40.848480 -89.669078
     50  "CHAMPAIGN 3"    : 40.109646 -88.274903
     51  "PEORIA 7"    : 40.697618 -89.612699
     52  "ELLSWORTH 1"    : 40.479200 -88.798900
     53  "TOWANDA"    : 40.566516 -88.874490
     54  "BLOOMINGTON "    : 40.471127 -88.944538
     55  "PRINCEVILLE"    : 40.938697 -89.939478
     56  "DELAVAN"    : 40.296711 -89.471453
     57  "PEORIA 6"    : 40.699807 -89.611514
     58  "SAVOY"    : 40.045756 -88.259444
     59  "NORMAL 2"    : 40.537000 -89.019000
     60  "EAST PEORIA"    : 40.713236 -89.535816
     61  "HANNA CITY"    : 40.689425 -89.793782
     62  "METAMORA"    : 40.870710 -89.353494
     63  "GREENVIEW"    : 40.092750 -89.724017
     64  "CLINTON 2"    : 40.200639 -88.814798
     65  "BARTONVILLE"    : 40.595800 -89.663100
     66  "NORMAL 1"    : 40.529083 -88.958937
     67  "LEXINGTON"    : 40.629725 -88.788001
     68  "PEORIA 5"    : 40.737893 -89.686781
     69  "MORTON"    : 40.618858 -89.336899
     70  "PEKIN 1"    : 40.540800 -89.678600
     71  "NIANTIC"    : 39.855374 -89.158927
     72  "COLFAX"    : 40.554670 -88.514468
     73  "EL PASO"    : 40.744984 -89.029986
     74  "TREMONT"    : 40.511627 -89.482220
     75  "PEORIA 4"    : 40.674568 -89.608587
     76  "PEORIA 3"    : 40.759136 -89.604123
     77  "CHAMPAIGN 2"    : 40.136481 -88.305307
     78  "EUREKA"    : 40.714370 -89.260105
     79  "CHATHAM"    : 39.668014 -89.826988
     80  "HOPEDALE 2"    : 40.369200 -89.402200
     81  "WASHINGTON"    : 40.704146 -89.417889
     82  "SPRINGFIELD "    : 39.757327 -89.600512
     83  "PEORIA 2"    : 40.627135 -89.685132
     84  "MT ZION"    : 39.719105 -88.840528
     85  "BUFFALO"    : 39.928796 -89.395320
     86  "SPRINGFIELD "    : 39.823300 -89.589100
     87  "CONGERVILLE"    : 40.628647 -89.221289
     88  "CHAMPAIGN 1"    : 40.105169 -88.241528
     89  "FISHER"    : 40.329508 -88.530877
     90  "HOMER"    : 39.916122 -87.914791
     91  "TUSCOLA 1"    : 39.905255 -88.278472
     92  "WHITE HEATH"    : 40.089160 -88.477814
     93  "TOLONO"    : 39.975064 -88.152723
     94  "SPRINGFIELD "    : 39.765466 -89.729326
     95  "MACKINAW"    : 40.430677 -89.203945
     96  "URBANA 1"    : 40.131498 -88.156770
     97  "SAINT JOSEPH"    : 40.133896 -88.039122
     98  "SPRINGFIELD "    : 39.806868 -89.641653
     99  "MONTICELLO"    : 39.960820 -88.434724
    100  "AUBURN"    : 39.560286 -89.675123
    101  "HOPEDALE 1"    : 40.416219 -89.435480
    102  "CLINTON 1"    : 40.171900 -88.833900
    103  "MAHOMET"    : 40.214956 -88.421171
    104  "VILLA GROVE"    : 39.714200 -87.897725
    105  "BLOOMINGTON "    : 40.476771 -88.992995
    106  "PEORIA 1"    : 40.676541 -89.633346
    107  "SPRINGFIELD "    : 39.762449 -89.629884
    108  "GIBSON CITY "    : 40.470500 -88.398700
    109  "MAPLETON"    : 40.556403 -89.762073
    110  "GIFFORD"    : 40.306027 -87.958606
    111  "PETERSBURG"    : 40.169931 -89.986537
bus data  [200]               ty  vsched   volt     angle    ar zone  vmax   vmin   date_in date_out pid L own st  latitude  longitude island    sdmon   vmax1      vmin1      dvmax subst
      1 "CREVE COEU~1" 115.0000 " "  0  :  1 1.019152  1.019152  -7.085196    1    2 -1.0000 -1.0000   400101   391231   0 0   1 0   0.000000   0.000000     0 0   -1.00000   -1.00000    0.00000 1 "CREVE COEUR"     1 -1 " " 
      2 "CREVE COEU~2" 115.0000 " "  0  :  1 1.019035  1.019035  -7.098018    1    2 -1.0000 -1.0000   400101   391231   0 0   1 0   0.000000   0.000000     0 0   -1.00000   -1.00000    0.00000 1 "CREVE COEUR"     2 -1 " " 
      3 "ILLIOPOLIS 0" 115.0000 " "  0  :  1 1.030054  1.030054  -10.029102    1    4 -1.0000 -1.0000   400101   391231   0 0   1 0   0.000000   0.000000     0 0   -1.00000   -1.00000    0.00000 2 "ILLIOPOLIS"     3 -1 " " 
      4 "ILLIOPOLIS 1" 115.0000 " "  0  :  1 1.030029  1.030029  -10.031977    1    4 -1.0000 -1.0000   400101   391231   0 0   1 0   0.000000   0.000000     0 0   -1.00000   -1.00000    0.00000 2 "ILLIOPOLIS"     4 -1 " " 
      5 "PAXTON 2 0  " 115.0000 " "  0  :  1 1.037273  1.037273  -3.546274    1    6 -1.0000 -1.0000   400101   391231   0 0   1 0   0.000000   0.000000     0 0   -1.00000   -1.00000    0.00000 3 "PAXTON 2"     5 -1 " " 
      6 "PAXTON 2 1  " 115.0000 " "  0  :  1 1.037147  1.037147  -3.559563    1    6 -1.0000 -1.0000   400101   391231   0 0   1 0   0.000000   0.000000     0 0   -1.00000   -1.00000    0.00000 3 "PAXTON 2"     6 -1 " " 
      7 "PEORIA 9 0  " 115.0000 " "  0  :  1 1.013098  1.013098  -7.793195    1    2 -1.0000 -1.0000   400101   391231   0 0   1 0   0.000000   0.000000     0 0   -1.00000   -1.00000    0.00000 4 "PEORIA 9"     7 -1 " " 
      8 "PEORIA 9 1  " 115.0000 " "  0  :  1 1.012736  1.012736  -7.833073    1    2 -1.0000 -1.0000   400101   391231   0 0   1 0   0.000000   0.000000     0 0   -1.00000   -1.00000    0.00000 4 "PEORIA 9"     8 -1 " " 
      9 "PEORIA 8 0  " 115.0000 " "  0  :  1 1.015774  1.015774  -7.471766    1    2 -1.0000 -1.0000   400101   391231   0 0   1 0   0.000000   0.000000     0 0   -1.00000   -1.00000    0.00000 5 "PEORIA 8"     9 -1 " " 
     10 "PEORIA 8 1  " 115.0000 " "  0  :  1 1.015052  1.015052  -7.561889    1    2 -1.0000 -1.0000   400101   391231   0 0   1 0   0.000000   0.000000     0 0   -1.00000   -1.00000    0.00000 5 "PEORIA 8"    10 -1 " " 
     11 "LOVINGTON 0 " 115.0000 " "  0  :  1 1.046442  1.046442  -7.604683    1    4 -1.0000 -1.0000   400101   391231   0 0   1 0   0.000000   0.000000     0 0   -1.00000   -1.00000    0.00000 6 "LOVINGTON"    11 -1 " " 
     12 "LOVINGTON 1 " 115.0000 " "  0  :  1 1.046438  1.046438  -7.605220    1    4 -1.0000 -1.0000   400101   391231   0 0   1 0   0.000000   0.000000     0 0   -1.00000   -1.00000    0.00000 6 "LOVINGTON"    12 -1 " " 
     13 "LOVINGTON 2 " 115.0000 " "  0  :  1 1.046403  1.046403  -7.609214    1    4 -1.0000 -1.0000   400101   391231   0 0   1 0   0.000000   0.000000     0 0   -1.00000   -1.00000    0.00000 6 "LOVINGTON"    13 -1 " " 
     14 "DECATUR 3 0 " 230.0000 " "  0  :  1 1.044617  1.044617  -6.245575    1    4 -1.0000 -1.0000   400101   391231   0 0   1 0   0.000000   0.000000     0 0   -1.00000   -1.00000    0.00000 7 "DECATUR 3"    14 -1 " " 
     15 "DECATUR 3 1 " 115.0000 " "  0  :  1 1.049107  1.049107  -7.105388    1    4 -1.0000 -1.0000   400101   391231   0 0   1 0   0.000000   0.000000     0 0   -1.00000   -1.00000    0.00000 7 "DECATUR 3"    15 -1 " " 
     16 "DECATUR 3 2 " 115.0000 " "  0  :  1 1.048481  1.048481  -7.176325    1    4 -1.0000 -1.0000   400101   391231   0 0   1 0   0.000000   0.000000     0 0   -1.00000   -1.00000    0.00000 7 "DECATUR 3"    16 -1 " " 
     17 "MASON CITY 0" 115.0000 " "  0  :  1 1.024794  1.024794  -8.305174    1    4 -1.0000 -1.0000   400101   391231   0 0   1 0   0.000000   0.000000     0 0   -1.00000   -1.00000    0.00000 8 "MASON CITY"    17 -1 " " 
     18 "MASON CITY 1" 115.0000 " "  0  :  1 1.024783  1.024783  -8.306647    1    4 -1.0000 -1.0000   400101   391231   0 0   1 0   0.000000   0.000000     0 0   -1.00000   -1.00000    0.00000 8 "MASON CITY"    18 -1 " " 
     19 "MASON CITY 2" 115.0000 " "  0  :  1 1.024784  1.024784  -8.306404    1    4 -1.0000 -1.0000   400101   391231   0 0   1 0   0.000000   0.000000     0 0   -1.00000   -1.00000    0.00000 8 "MASON CITY"    19 -1 " " 
     20 "MASON CITY 3" 115.0000 " "  0  :  1 1.024777  1.024777  -8.307127    1    4 -1.0000 -1.0000   400101   391231   0 0   1 0   0.000000   0.000000     0 0   -1.00000   -1.00000    0.00000 8 "MASON CITY"    20 -1 " " 
     21 "MASON CITY 4" 115.0000 " "  0  :  1 1.024716  1.024716  -8.314630    1    4 -1.0000 -1.0000   400101   391231   0 0   1 0   0.000000   0.000000     0 0   -1.00000   -1.00000    0.00000 8 "MASON CITY"    21 -1 " " 
     22 "BETHANY 0   " 115.0000 " "  0  :  1 1.044653  1.044653  -8.021549    1    4 -1.0000 -1.0000   400101   391231   0 0   1 0   0.000000   0.000000     0 0   -1.00000   -1.00000    0.00000 9 "BETHANY"    22 -1 " " 
     23 "BETHANY 1   " 115.0000 " "  0  :  1 1.044633  1.044633  -8.023805    1    4 -1.0000 -1.0000   400101   391231   0 0   1 0   0.000000   0.000000     0 0   -1.00000   -1.00000    0.00000 9 "BETHANY"    23 -1 " " 
     24 "BETHANY 2   " 115.0000 " "  0  :  1 1.044617  1.044617  -8.025162    1    4 -1.0000 -1.0000   400101   391231   0 0   1 0   0.000000   0.000000     0 0   -1.00000   -1.00000    0.00000 9 "BETHANY"    24 -1 " " 
     25 "RANKIN 0    " 115.0000 " "  0  :  1 1.042514  1.042514  -4.003351    1    6 -1.0000 -1.0000   400101   391231   0 0   1 0   0.000000   0.000000     0 0   -1.00000   -1.00000    0.00000 10 "RANKIN"    25 -1 " " 
     26 "RANKIN 1    " 115.0000 " "  0  :  1 1.042495  1.042495  -4.005417    1    6 -1.0000 -1.0000   400101   391231   0 0   1 0   0.000000   0.000000     0 0   -1.00000   -1.00000    0.00000 10 "RANKIN"    26 -1 " " 
     27 "WINDSOR 0   " 115.0000 " "  0  :  1 1.045727  1.045727  -7.975065    1    4 -1.0000 -1.0000   400101   391231   0 0   1 0   0.000000   0.000000     0 0   -1.00000   -1.00000    0.00000 11 "WINDSOR"    27 -1 " " 
     28 "WINDSOR 1   " 115.0000 " "  0  :  1 1.045689  1.045689  -7.979706    1    4 -1.0000 -1.0000   400101   391231   0 0   1 0   0.000000   0.000000     0 0   -1.00000   -1.00000    0.00000 11 "WINDSOR"    28 -1 " " 
     29 "PEKIN 2 0   " 115.0000 " "  0  :  1 1.018169  1.018169  -7.054086    1    2 -1.0000 -1.0000   400101   391231   0 0   1 0   0.000000   0.000000     0 0   -1.00000   -1.00000    0.00000 12 "PEKIN 2"    29 -1 " " 
     30 "PEKIN 2 1   " 115.0000 " "  0  :  1 1.017246  1.017246  -7.149969    1    2 -1.0000 -1.0000   400101   391231   0 0   1 0   0.000000   0.000000     0 0   -1.00000   -1.00000    0.00000 12 "PEKIN 2"    30 -1 " " 
     31 "HEYWORTH 0  " 115.0000 " "  0  :  1 1.021542  1.021542  -5.832082    1    7 -1.0000 -1.0000   400101   391231   0 0   1 0   0.000000   0.000000     0 0   -1.00000   -1.00000    0.00000 13 "HEYWORTH"    31 -1 " " 
     32 "HEYWORTH 1  " 115.0000 " "  0  :  1 1.021533  1.021533  -5.833121    1    7 -1.0000 -1.0000   400101   391231   0 0   1 0   0.000000   0.000000     0 0   -1.00000   -1.00000    0.00000 13 "HEYWORTH"    32 -1 " " 
     33 "HEYWORTH 2  " 115.0000 " "  0  :  1 1.021443  1.021443  -5.844415    1    7 -1.0000 -1.0000   400101   391231   0 0   1 0   0.000000   0.000000     0 0   -1.00000   -1.00000    0.00000 13 "HEYWORTH"    33 -1 " " 
     34 "DECATUR 2 0 " 115.0000 " "  0  :  1 1.032719  1.032719  -9.326455    1    4 -1.0000 -1.0000   400101   391231   0 0   1 0   0.000000   0.000000     0 0   -1.00000   -1.00000    0.00000 14 "DECATUR 2"    34 -1 " " 
     35 "DECATUR 2 1 " 115.0000 " "  0  :  1 1.032392  1.032392  -9.365615    1    4 -1.0000 -1.0000   400101   391231   0 0   1 0   0.000000   0.000000     0 0   -1.00000   -1.00000    0.00000 14 "DECATUR 2"    35 -1 " " 
     36 "LINCOLN 0   " 115.0000 " "  0  :  1 1.028070  1.028070  -6.178381    1    7 -1.0000 -1.0000   400101   391231   0 0   1 0   0.000000   0.000000     0 0   -1.00000   -1.00000    0.00000 15 "LINCOLN"    36 -1 " " 
     37 "LINCOLN 1   " 115.0000 " "  0  :  1 1.028018  1.028018  -6.184520    1    7 -1.0000 -1.0000   400101   391231   0 0   1 0   0.000000   0.000000     0 0   -1.00000   -1.00000    0.00000 15 "LINCOLN"    37 -1 " " 
     38 "LINCOLN 2   " 115.0000 " "  0  :  1 1.027585  1.027585  -6.232050    1    7 -1.0000 -1.0000   400101   391231   0 0   1 0   0.000000   0.000000     0 0   -1.00000   -1.00000    0.00000 15 "LINCOLN"    38 -1 " " 
     39 "SHERMAN 0   " 115.0000 " "  0  :  1 1.024585  1.024585  -10.493094    1    4 -1.0000 -1.0000   400101   391231   0 0   1 0   0.000000   0.000000     0 0   -1.00000   -1.00000    0.00000 16 "SHERMAN"    39 -1 " " 
     40 "SHERMAN 1   " 115.0000 " "  0  :  1 1.024557  1.024557  -10.496396    1    4 -1.0000 -1.0000   400101   391231   0 0   1 0   0.000000   0.000000     0 0   -1.00000   -1.00000    0.00000 16 "SHERMAN"    40 -1 " " 
     41 "URBANA 2 0  " 115.0000 " "  0  :  1 1.046280  1.046280  -7.960170    1    5 -1.0000 -1.0000   400101   391231   0 0   1 0   0.000000   0.000000     0 0   -1.00000   -1.00000    0.00000 17 "URBANA 2"    41 -1 " " 
     42 "SPRINGFIE~18" 115.0000 " "  0  :  1 1.030146  1.030146  -11.069993    1    4 -1.0000 -1.0000   400101   391231   0 0   1 0   0.000000   0.000000     0 0   -1.00000   -1.00000    0.00000 18 "SPRINGFIELD 8"    42 -1 " " 
     43 "CARLOCK 0   " 115.0000 " "  0  :  1 1.017201  1.017201  -6.400585    1    2 -1.0000 -1.0000   400101   391231   0 0   1 0   0.000000   0.000000     0 0   -1.00000   -1.00000    0.00000 19 "CARLOCK"    43 -1 " " 
     44 "PLEASANT P~1" 115.0000 " "  0  :  1 1.028014  1.028014  -10.398860    1    4 -1.0000 -1.0000   400101   391231   0 0   1 0   0.000000   0.000000     0 0   -1.00000   -1.00000    0.00000 20 "PLEASANT PLAINS"    44 -1 " " 
     45 "LE ROY 0    " 230.0000 " "  0  :  1 1.038437  1.038437  -2.068677    1    7 -1.0000 -1.0000   400101   391231   0 0   1 0   0.000000   0.000000     0 0   -1.00000   -1.00000    0.00000 21 "LE ROY"    45 -1 " " 
     46 "LE ROY 1    " 115.0000 " "  0  :  1 1.037812  1.037812  -2.889424    1    7 -1.0000 -1.0000   400101   391231   0 0   1 0   0.000000   0.000000     0 0   -1.00000   -1.00000    0.00000 21 "LE ROY"    46 -1 " " 
     47 "DECATUR 1 0 " 115.0000 " "  0  :  1 1.039262  1.039262  -8.195320    1    4 -1.0000 -1.0000   400101   391231   0 0   1 0   0.000000   0.000000     0 0   -1.00000   -1.00000    0.00000 22 "DECATUR 1"    47 -1 " " 
     48 "RANTOUL 2 0 " 115.0000 " "  0  :  1 1.035147  1.035147  -4.175010    1    6 -1.0000 -1.0000   400101   391231   0 0   1 0   0.000000   0.000000     0 0   -1.00000   -1.00000    0.00000 23 "RANTOUL 2"    48 -1 " " 
     49 "RANTOUL 2 1 "  13.8000 " "  0  :  2 1.040000 1.040000  -3.802690    1    6 -1.0000 -1.0000   400101   391231   0 0   1 0   0.000000   0.000000     0 0   -1.00000   -1.00000    0.00000 23 "RANTOUL 2"    49 -1 " " 
     50 "RANTOUL 2 2 "  13.8000 " "  0  :  2 1.040000 1.040000  -3.896095    1    6 -1.0000 -1.0000   400101   391231   0 0   1 0   0.000000   0.000000     0 0   -1.00000   -1.00000    0.00000 23 "RANTOUL 2"    50 -1 " " 
     51 "RANTOUL 2 3 "  13.8000 " "  0  :  2 1.040000 1.040000  -3.742621    1    6 -1.0000 -1.0000   400101   391231   0 0   1 0   0.000000   0.000000     0 0   -1.00000   -1.00000    0.00000 23 "RANTOUL 2"    51 -1 " " 
     52 "RANTOUL 2 4 "  13.8000 " "  0  :  2 1.040000 1.040000  -3.914588    1    6 -1.0000 -1.0000   400101   391231   0 0   1 0   0.000000   0.000000     0 0   -1.00000   -1.00000    0.00000 23 "RANTOUL 2"    52 -1 " " 
     53 "RANTOUL 2 5 "  13.8000 " "  0  :  2 1.040000 1.040000  -3.349326    1    6 -1.0000 -1.0000   400101   391231   0 0   1 0   0.000000   0.000000     0 0   -1.00000   -1.00000    0.00000 23 "RANTOUL 2"    53 -1 " " 
     54 "MACON 0     " 115.0000 " "  0  :  1 1.037501  1.037501  -8.493516    1    4 -1.0000 -1.0000   400101   391231   0 0   1 0   0.000000   0.000000     0 0   -1.00000   -1.00000    0.00000 24 "MACON"    54 -1 " " 
     55 "ELLSWORTH ~5" 230.0000 " "  0  :  1 1.037072  1.037072  -2.298751    1    7 -1.0000 -1.0000   400101   391231   0 0   1 0   0.000000   0.000000     0 0   -1.00000   -1.00000    0.00000 25 "ELLSWORTH 2"    55 -1 " " 
     56 "ELLSWORTH ~6" 115.0000 " "  0  :  1 1.036441  1.036441  -2.736582    1    7 -1.0000 -1.0000   400101   391231   0 0   1 0   0.000000   0.000000     0 0   -1.00000   -1.00000    0.00000 25 "ELLSWORTH 2"    56 -1 " " 
     57 "MOUNT PULA~1" 115.0000 " "  0  :  1 1.028134  1.028134  -10.449132    1    4 -1.0000 -1.0000   400101   391231   0 0   1 0   0.000000   0.000000     0 0   -1.00000   -1.00000    0.00000 26 "MOUNT PULASKI"    57 -1 " " 
     58 "WAPELLA 0   " 115.0000 " "  0  :  1 1.034941  1.034941  -6.030088    1    7 -1.0000 -1.0000   400101   391231   0 0   1 0   0.000000   0.000000     0 0   -1.00000   -1.00000    0.00000 27 "WAPELLA"    58 -1 " " 
     59 "ROANOKE 0   " 115.0000 " "  0  :  1 1.018788  1.018788  -7.693149    1    2 -1.0000 -1.0000   400101   391231   0 0   1 0   0.000000   0.000000     0 0   -1.00000   -1.00000    0.00000 28 "ROANOKE"    59 -1 " " 
     60 "GREEN VALL~1" 115.0000 " "  0  :  1 1.029110  1.029110  -6.554687    1    2 -1.0000 -1.0000   400101   391231   0 0   1 0   0.000000   0.000000     0 0   -1.00000   -1.00000    0.00000 29 "GREEN VALLEY"    60 -1 " " 
     61 "BLOOMINGTO~3" 115.0000 " "  0  :  1 1.035153  1.035153  -3.102719    1    7 -1.0000 -1.0000   400101   391231   0 0   1 0   0.000000   0.000000     0 0   -1.00000   -1.00000    0.00000 30 "BLOOMINGTON 3"    61 -1 " " 
     62 "SPRINGFIE~17" 115.0000 " "  0  :  1 1.026719  1.026719  -11.318015    1    4 -1.0000 -1.0000   400101   391231   0 0   1 0   0.000000   0.000000     0 0   -1.00000   -1.00000    0.00000 31 "SPRINGFIELD 7"    62 -1 " " 
     63 "BEMENT 0    " 115.0000 " "  0  :  1 1.043778  1.043778  -8.233032    1    4 -1.0000 -1.0000   400101   391231   0 0   1 0   0.000000   0.000000     0 0   -1.00000   -1.00000    0.00000 32 "BEMENT"    63 -1 " " 
     64 "PAXTON 1 0  " 115.0000 " "  0  :  1 1.041542  1.041542  -2.532761    1    6 -1.0000 -1.0000   400101   391231   0 0   1 0   0.000000   0.000000     0 0   -1.00000   -1.00000    0.00000 33 "PAXTON 1"    64 -1 " " 
     65 "PAXTON 1 1  "  13.8000 " "  0  :  2 1.040000 1.040000  2.119000    1    6 -1.0000 -1.0000   400101   391231   0 0   1 0   0.000000   0.000000     0 0   -1.00000   -1.00000    0.00000 33 "PAXTON 1"    65 -1 " " 
     66 "MOUNT ZION 0" 115.0000 " "  0  :  1 1.041070  1.041070  -7.846441    1    4 -1.0000 -1.0000   400101   391231   0 0   1 0   0.000000   0.000000     0 0   -1.00000   -1.00000    0.00000 34 "MOUNT ZION"    66 -1 " " 
     67 "MOUNT ZION 1"  13.8000 " "  0  :  2 1.040000 1.040559  -7.732150    1    4 -1.0000 -1.0000   400101   391231   0 0   1 0   0.000000   0.000000     0 0   -1.00000   -1.00000    0.00000 34 "MOUNT ZION"    67 -1 " " 
     68 "MOUNT ZION 2"  13.8000 " "  0  :  2 1.040000 1.040000  -6.669196    1    4 -1.0000 -1.0000   400101   391231   0 0   1 0   0.000000   0.000000     0 0   -1.00000   -1.00000    0.00000 34 "MOUNT ZION"    68 -1 " " 
     69 "MOUNT ZION 3"  13.8000 " "  0  :  2 1.040000 1.040000  -7.421629    1    4 -1.0000 -1.0000   400101   391231   0 0   1 0   0.000000   0.000000     0 0   -1.00000   -1.00000    0.00000 34 "MOUNT ZION"    69 -1 " " 
     70 "MOUNT ZION 4"  13.8000 " "  0  :  2 1.040000 1.040000  -6.959081    1    4 -1.0000 -1.0000   400101   391231   0 0   1 0   0.000000   0.000000     0 0   -1.00000   -1.00000    0.00000 34 "MOUNT ZION"    70 -1 " " 
     71 "MOUNT ZION 5"  13.8000 " "  0  :  2 1.040000 1.040000  -7.481650    1    4 -1.0000 -1.0000   400101   391231   0 0   1 0   0.000000   0.000000     0 0   -1.00000   -1.00000    0.00000 34 "MOUNT ZION"    71 -1 " " 
     72 "MOUNT ZION 6"  13.8000 " "  0  :  2 1.040000 1.040000  -7.512144    1    4 -1.0000 -1.0000   400101   391231   0 0   1 0   0.000000   0.000000     0 0   -1.00000   -1.00000    0.00000 34 "MOUNT ZION"    72 -1 " " 
     73 "MOUNT ZION 7"  13.8000 " "  0  :  2 1.040000 1.040000  -7.193069    1    4 -1.0000 -1.0000   400101   391231   0 0   1 0   0.000000   0.000000     0 0   -1.00000   -1.00000    0.00000 34 "MOUNT ZION"    73 -1 " " 
     74 "RANTOUL 1 0 " 115.0000 " "  0  :  1 1.029482  1.029482  -5.129640    1    6 -1.0000 -1.0000   400101   391231   0 0   1 0   0.000000   0.000000     0 0   -1.00000   -1.00000    0.00000 35 "RANTOUL 1"    74 -1 " " 
     75 "BRIMFIELD 0 " 115.0000 " "  0  :  1 1.028977  1.028977  -6.116296    1    2 -1.0000 -1.0000   400101   391231   0 0   1 0   0.000000   0.000000     0 0   -1.00000   -1.00000    0.00000 36 "BRIMFIELD"    75 -1 " " 
     76 "BRIMFIELD 1 "  13.8000 " "  0  :  2 1.040000 1.040000  -5.641354    1    2 -1.0000 -1.0000   400101   391231   0 0   1 0   0.000000   0.000000     0 0   -1.00000   -1.00000    0.00000 36 "BRIMFIELD"    76 -1 " " 
     77 "BRIMFIELD 2 "  13.8000 " "  0  :  2 1.040000 1.040000  -5.292751    1    2 -1.0000 -1.0000   400101   391231   0 0   1 0   0.000000   0.000000     0 0   -1.00000   -1.00000    0.00000 36 "BRIMFIELD"    77 -1 " " 
     78 "BRIMFIELD 3 "  13.8000 " "  0  :  2 1.040000 1.028977  -6.116296    1    2 -1.0000 -1.0000   400101   391231   0 0   1 0   0.000000   0.000000     0 0   -1.00000   -1.00000    0.00000 36 "BRIMFIELD"    78 -1 " " 
     79 "BRIMFIELD 4 "  13.8000 " "  0  :  2 1.040000 1.028977  -6.116296    1    2 -1.0000 -1.0000   400101   391231   0 0   1 0   0.000000   0.000000     0 0   -1.00000   -1.00000    0.00000 36 "BRIMFIELD"    79 -1 " " 
     80 "WELDON 0    " 115.0000 " "  0  :  1 1.047562  1.047562  -7.258210    1    5 -1.0000 -1.0000   400101   391231   0 0   1 0   0.000000   0.000000     0 0   -1.00000   -1.00000    0.00000 37 "WELDON"    80 -1 " " 
     81 "GIBSON CIT~4" 230.0000 " "  0  :  1 1.038152  1.038152  -3.896426    1    6 -1.0000 -1.0000   400101   391231   0 0   1 0   0.000000   0.000000     0 0   -1.00000   -1.00000    0.00000 38 "GIBSON CITY 2"    81 -1 " " 
     82 "GIBSON CIT~5" 115.0000 " "  0  :  1 1.035311  1.035311  -4.724670    1    6 -1.0000 -1.0000   400101   391231   0 0   1 0   0.000000   0.000000     0 0   -1.00000   -1.00000    0.00000 38 "GIBSON CITY 2"    82 -1 " " 
     83 "MINIER 0    " 115.0000 " "  0  :  1 1.030590  1.030590  -5.147124    1    7 -1.0000 -1.0000   400101   391231   0 0   1 0   0.000000   0.000000     0 0   -1.00000   -1.00000    0.00000 39 "MINIER"    83 -1 " " 
     84 "HUDSON 0    " 115.0000 " "  0  :  1 1.019237  1.019237  -5.836735    1    2 -1.0000 -1.0000   400101   391231   0 0   1 0   0.000000   0.000000     0 0   -1.00000   -1.00000    0.00000 40 "HUDSON"    84 -1 " " 
     85 "ATHENS 0    " 115.0000 " "  0  :  1 1.024103  1.024103  -9.891841    1    4 -1.0000 -1.0000   400101   391231   0 0   1 0   0.000000   0.000000     0 0   -1.00000   -1.00000    0.00000 41 "ATHENS"    85 -1 " " 
     86 "PEORIA HEI~1" 115.0000 " "  0  :  1 1.014290  1.014290  -7.633369    1    2 -1.0000 -1.0000   400101   391231   0 0   1 0   0.000000   0.000000     0 0   -1.00000   -1.00000    0.00000 42 "PEORIA HEIGHTS"    86 -1 " " 
     87 "SPRINGFIE~15" 230.0000 " "  0  :  1 1.038238  1.038238  -9.281203    1    3 -1.0000 -1.0000   400101   391231   0 0   1 0   0.000000   0.000000     0 0   -1.00000   -1.00000    0.00000 43 "SPRINGFIELD 6"    87 -1 " " 
     88 "SPRINGFIE~16" 115.0000 " "  0  :  1 1.036774  1.036774  -10.475486    1    3 -1.0000 -1.0000   400101   391231   0 0   1 0   0.000000   0.000000     0 0   -1.00000   -1.00000    0.00000 43 "SPRINGFIELD 6"    88 -1 " " 
     89 "CLINTON 3 0 " 115.0000 " "  0  :  1 1.036796  1.036796  -6.001781    1    7 -1.0000 -1.0000   400101   391231   0 0   1 0   0.000000   0.000000     0 0   -1.00000   -1.00000    0.00000 44 "CLINTON 3"    89 -1 " " 
     90 "CLINTON 3 1 "  13.8000 " "  0  :  2 1.040000 1.040000  -4.842850    1    7 -1.0000 -1.0000   400101   391231   0 0   1 0   0.000000   0.000000     0 0   -1.00000   -1.00000    0.00000 44 "CLINTON 3"    90 -1 " " 
     91 "CLINTON 3 2 "  13.8000 " "  0  :  2 1.040000 1.040000  -5.608287    1    7 -1.0000 -1.0000   400101   391231   0 0   1 0   0.000000   0.000000     0 0   -1.00000   -1.00000    0.00000 44 "CLINTON 3"    91 -1 " " 
     92 "CLINTON 3 3 "  13.8000 " "  0  :  2 1.040000 1.036796  -6.001781    1    7 -1.0000 -1.0000   400101   391231   0 0   1 0   0.000000   0.000000     0 0   -1.00000   -1.00000    0.00000 44 "CLINTON 3"    92 -1 " " 
     93 "TUSCOLA 2 0 " 115.0000 " "  0  :  1 1.046763  1.046763  -7.705981    1    4 -1.0000 -1.0000   400101   391231   0 0   1 0   0.000000   0.000000     0 0   -1.00000   -1.00000    0.00000 45 "TUSCOLA 2"    93 -1 " " 
     94 "TUSCOLA 2 1 "  13.8000 " "  0  :  2 1.040000 1.041285  -6.897097    1    4 -1.0000 -1.0000   400101   391231   0 0   1 0   0.000000   0.000000     0 0   -1.00000   -1.00000    0.00000 45 "TUSCOLA 2"    94 -1 " " 
     95 "KENNEY 0    " 115.0000 " "  0  :  1 1.045270  1.045270  -6.143695    1    7 -1.0000 -1.0000   400101   391231   0 0   1 0   0.000000   0.000000     0 0   -1.00000   -1.00000    0.00000 46 "KENNEY"    95 -1 " " 
     96 "MANSFIELD 0 " 115.0000 " "  0  :  1 1.039984  1.039984  -4.622369    1    7 -1.0000 -1.0000   400101   391231   0 0   1 0   0.000000   0.000000     0 0   -1.00000   -1.00000    0.00000 47 "MANSFIELD"    96 -1 " " 
     97 "MANITO 0    " 115.0000 " "  0  :  1 1.026628  1.026628  -8.070874    1    2 -1.0000 -1.0000   400101   391231   0 0   1 0   0.000000   0.000000     0 0   -1.00000   -1.00000    0.00000 48 "MANITO"    97 -1 " " 
     98 "DUNLAP 0    " 230.0000 " "  0  :  1 1.025973  1.025973  -5.693301    1    2 -1.0000 -1.0000   400101   391231   0 0   1 0   0.000000   0.000000     0 0   -1.00000   -1.00000    0.00000 49 "DUNLAP"    98 -1 " " 
     99 "DUNLAP 1    " 115.0000 " "  0  :  1 1.021759  1.021759  -6.532648    1    2 -1.0000 -1.0000   400101   391231   0 0   1 0   0.000000   0.000000     0 0   -1.00000   -1.00000    0.00000 49 "DUNLAP"    99 -1 " " 
    100 "CHAMPAIGN~10" 115.0000 " "  0  :  1 1.055590  1.055590  -7.845164    1    5 -1.0000 -1.0000   400101   391231   0 0   1 0   0.000000   0.000000     0 0   -1.00000   -1.00000    0.00000 50 "CHAMPAIGN 3"   100 -1 " " 
    101 "PEORIA 7 0  " 115.0000 " "  0  :  1 1.015342  1.015342  -7.486883    1    2 -1.0000 -1.0000   400101   391231   0 0   1 0   0.000000   0.000000     0 0   -1.00000   -1.00000    0.00000 51 "PEORIA 7"   101 -1 " " 
    102 "ELLSWORTH ~1" 230.0000 " "  0  :  1 1.037588  1.037588  -1.855349    1    7 -1.0000 -1.0000   400101   391231   0 0   1 0   0.000000   0.000000     0 0   -1.00000   -1.00000    0.00000 52 "ELLSWORTH 1"   102 -1 " " 
    103 "ELLSWORTH ~2" 115.0000 " "  0  :  1 1.036191  1.036191  -2.820525    1    7 -1.0000 -1.0000   400101   391231   0 0   1 0   0.000000   0.000000     0 0   -1.00000   -1.00000    0.00000 52 "ELLSWORTH 1"   103 -1 " " 
    104 "ELLSWORTH ~3"  13.8000 " "  0  :  2 1.040000 1.040000  1.292356    1    7 -1.0000 -1.0000   400101   391231   0 0   1 0   0.000000   0.000000     0 0   -1.00000   -1.00000    0.00000 52 "ELLSWORTH 1"   104 -1 " " 
    105 "ELLSWORTH ~4"  13.8000 " "  0  :  2 1.040000 1.040000  3.030149    1    7 -1.0000 -1.0000   400101   391231   0 0   1 0   0.000000   0.000000     0 0   -1.00000   -1.00000    0.00000 52 "ELLSWORTH 1"   105 -1 " " 
    106 "TOWANDA 0   " 115.0000 " "  0  :  1 1.033305  1.033305  -3.587524    1    7 -1.0000 -1.0000   400101   391231   0 0   1 0   0.000000   0.000000     0 0   -1.00000   -1.00000    0.00000 53 "TOWANDA"   106 -1 " " 
    107 "BLOOMINGTO~2" 115.0000 " "  0  :  1 1.016425  1.016425  -5.897801    1    7 -1.0000 -1.0000   400101   391231   0 0   1 0   0.000000   0.000000     0 0   -1.00000   -1.00000    0.00000 54 "BLOOMINGTON 2"   107 -1 " " 
    108 "PRINCEVILL~1" 115.0000 " "  0  :  1 1.026310  1.026310  -6.590908    1    2 -1.0000 -1.0000   400101   391231   0 0   1 0   0.000000   0.000000     0 0   -1.00000   -1.00000    0.00000 55 "PRINCEVILLE"   108 -1 " " 
    109 "DELAVAN 0   " 115.0000 " "  0  :  1 1.026689  1.026689  -7.119037    1    4 -1.0000 -1.0000   400101   391231   0 0   1 0   0.000000   0.000000     0 0   -1.00000   -1.00000    0.00000 56 "DELAVAN"   109 -1 " " 
    110 "PEORIA 6 0  " 115.0000 " "  0  :  1 1.015400  1.015400  -7.494693    1    2 -1.0000 -1.0000   400101   391231   0 0   1 0   0.000000   0.000000     0 0   -1.00000   -1.00000    0.00000 57 "PEORIA 6"   110 -1 " " 
    111 "SAVOY 0     " 115.0000 " "  0  :  1 1.042300  1.042300  -8.069078    1    5 -1.0000 -1.0000   400101   391231   0 0   1 0   0.000000   0.000000     0 0   -1.00000   -1.00000    0.00000 58 "SAVOY"   111 -1 " " 
    112 "NORMAL 2 0  " 230.0000 " "  0  :  1 1.033887  1.033887  -2.386010    1    7 -1.0000 -1.0000   400101   391231   0 0   1 0   0.000000   0.000000     0 0   -1.00000   -1.00000    0.00000 59 "NORMAL 2"   112 -1 " " 
    113 "NORMAL 2 1  " 115.0000 " "  0  :  1 1.021479  1.021479  -5.246294    1    7 -1.0000 -1.0000   400101   391231   0 0   1 0   0.000000   0.000000     0 0   -1.00000   -1.00000    0.00000 59 "NORMAL 2"   113 -1 " " 
    114 "NORMAL 2 2  "  13.8000 " "  0  :  2 1.040000 1.036204  -2.072597    1    7 -1.0000 -1.0000   400101   391231   0 0   1 0   0.000000   0.000000     0 0   -1.00000   -1.00000    0.00000 59 "NORMAL 2"   114 -1 " " 
    115 "NORMAL 2 3  "  13.8000 " "  0  :  2 1.040000 1.040000  2.075284    1    7 -1.0000 -1.0000   400101   391231   0 0   1 0   0.000000   0.000000     0 0   -1.00000   -1.00000    0.00000 59 "NORMAL 2"   115 -1 " " 
    116 "EAST PEORI~1" 230.0000 " "  0  :  1 1.026058  1.026058  -5.407570    1    2 -1.0000 -1.0000   400101   391231   0 0   1 0   0.000000   0.000000     0 0   -1.00000   -1.00000    0.00000 60 "EAST PEORIA"   116 -1 " " 
    117 "EAST PEORI~2" 115.0000 " "  0  :  1 1.019406  1.019406  -6.761358    1    2 -1.0000 -1.0000   400101   391231   0 0   1 0   0.000000   0.000000     0 0   -1.00000   -1.00000    0.00000 60 "EAST PEORIA"   117 -1 " " 
    118 "HANNA CITY 0" 115.0000 " "  0  :  1 1.022086  1.022086  -6.761277    1    2 -1.0000 -1.0000   400101   391231   0 0   1 0   0.000000   0.000000     0 0   -1.00000   -1.00000    0.00000 61 "HANNA CITY"   118 -1 " " 
    119 "METAMORA 0  " 115.0000 " "  0  :  1 1.016297  1.016297  -7.890283    1    2 -1.0000 -1.0000   400101   391231   0 0   1 0   0.000000   0.000000     0 0   -1.00000   -1.00000    0.00000 62 "METAMORA"   119 -1 " " 
    120 "GREENVIEW 0 " 115.0000 " "  0  :  1 1.024452  1.024452  -9.260740    1    4 -1.0000 -1.0000   400101   391231   0 0   1 0   0.000000   0.000000     0 0   -1.00000   -1.00000    0.00000 63 "GREENVIEW"   120 -1 " " 
    121 "CLINTON 2 0 " 230.0000 " "  0  :  1 1.041375  1.041375  -2.550667    1    7 -1.0000 -1.0000   400101   391231   0 0   1 0   0.000000   0.000000     0 0   -1.00000   -1.00000    0.00000 64 "CLINTON 2"   121 -1 " " 
    122 "CLINTON 2 1 " 115.0000 " "  0  :  1 1.039211  1.039211  -3.476706    1    7 -1.0000 -1.0000   400101   391231   0 0   1 0   0.000000   0.000000     0 0   -1.00000   -1.00000    0.00000 64 "CLINTON 2"   122 -1 " " 
    123 "BARTONVILL~1" 230.0000 " "  0  :  1 1.031771  1.031771  -4.799729    1    2 -1.0000 -1.0000   400101   391231   0 0   1 0   0.000000   0.000000     0 0   -1.00000   -1.00000    0.00000 65 "BARTONVILLE"   123 -1 " " 
    124 "BARTONVILL~2" 115.0000 " "  0  :  1 1.024199  1.024199  -6.311793    1    2 -1.0000 -1.0000   400101   391231   0 0   1 0   0.000000   0.000000     0 0   -1.00000   -1.00000    0.00000 65 "BARTONVILLE"   124 -1 " " 
    125 "BARTONVILL~3"  13.8000 " "  0  :  2 1.040000 1.040000  -2.638002    1    2 -1.0000 -1.0000   400101   391231   0 0   1 0   0.000000   0.000000     0 0   -1.00000   -1.00000    0.00000 65 "BARTONVILLE"   125 -1 " " 
    126 "BARTONVILL~4"  13.8000 " "  0  :  2 1.040000 1.040000  -3.433514    1    2 -1.0000 -1.0000   400101   391231   0 0   1 0   0.000000   0.000000     0 0   -1.00000   -1.00000    0.00000 65 "BARTONVILLE"   126 -1 " " 
    127 "BARTONVILL~5"  13.8000 " "  0  :  2 1.040000 1.040000  -4.153305    1    2 -1.0000 -1.0000   400101   391231   0 0   1 0   0.000000   0.000000     0 0   -1.00000   -1.00000    0.00000 65 "BARTONVILLE"   127 -1 " " 
    128 "NORMAL 1 0  " 230.0000 " "  0  :  1 1.033662  1.033662  -2.641873    1    7 -1.0000 -1.0000   400101   391231   0 0   1 0   0.000000   0.000000     0 0   -1.00000   -1.00000    0.00000 66 "NORMAL 1"   128 -1 " " 
    129 "NORMAL 1 1  " 115.0000 " "  0  :  1 1.019907  1.019907  -5.280933    1    7 -1.0000 -1.0000   400101   391231   0 0   1 0   0.000000   0.000000     0 0   -1.00000   -1.00000    0.00000 66 "NORMAL 1"   129 -1 " " 
    130 "LEXINGTON 0 " 115.0000 " "  0  :  1 1.030854  1.030854  -4.215383    1    7 -1.0000 -1.0000   400101   391231   0 0   1 0   0.000000   0.000000     0 0   -1.00000   -1.00000    0.00000 67 "LEXINGTON"   130 -1 " " 
    131 "PEORIA 5 0  " 115.0000 " "  0  :  1 1.015952  1.015952  -7.483658    1    2 -1.0000 -1.0000   400101   391231   0 0   1 0   0.000000   0.000000     0 0   -1.00000   -1.00000    0.00000 68 "PEORIA 5"   131 -1 " " 
    132 "MORTON 0    " 115.0000 " "  0  :  1 1.014202  1.014202  -7.143976    1    2 -1.0000 -1.0000   400101   391231   0 0   1 0   0.000000   0.000000     0 0   -1.00000   -1.00000    0.00000 69 "MORTON"   132 -1 " " 
    133 "PEKIN 1 0   " 230.0000 " "  0  :  1 1.033428  1.033428  -4.376173    1    2 -1.0000 -1.0000   400101   391231   0 0   1 0   0.000000   0.000000     0 0   -1.00000   -1.00000    0.00000 70 "PEKIN 1"   133 -1 " " 
    134 "PEKIN 1 1   " 115.0000 " "  0  :  1 1.031565  1.031565  -5.231244    1    2 -1.0000 -1.0000   400101   391231   0 0   1 0   0.000000   0.000000     0 0   -1.00000   -1.00000    0.00000 70 "PEKIN 1"   134 -1 " " 
    135 "PEKIN 1 2   "  13.8000 " "  0  :  2 1.040000 1.040000  -1.987898    1    2 -1.0000 -1.0000   400101   391231   0 0   1 0   0.000000   0.000000     0 0   -1.00000   -1.00000    0.00000 70 "PEKIN 1"   135 -1 " " 
    136 "PEKIN 1 3   "  13.8000 " "  0  :  2 1.040000 1.040000  -2.419807    1    2 -1.0000 -1.0000   400101   391231   0 0   1 0   0.000000   0.000000     0 0   -1.00000   -1.00000    0.00000 70 "PEKIN 1"   136 -1 " " 
    137 "NIANTIC 0   " 115.0000 " "  0  :  1 1.031326  1.031326  -9.719095    1    4 -1.0000 -1.0000   400101   391231   0 0   1 0   0.000000   0.000000     0 0   -1.00000   -1.00000    0.00000 71 "NIANTIC"   137 -1 " " 
    138 "COLFAX 0    " 115.0000 " "  0  :  1 1.030792  1.030792  -5.699318    1    6 -1.0000 -1.0000   400101   391231   0 0   1 0   0.000000   0.000000     0 0   -1.00000   -1.00000    0.00000 72 "COLFAX"   138 -1 " " 
    139 "EL PASO 0   " 115.0000 " "  0  :  1 1.021417  1.021417  -7.361468    1    2 -1.0000 -1.0000   400101   391231   0 0   1 0   0.000000   0.000000     0 0   -1.00000   -1.00000    0.00000 73 "EL PASO"   139 -1 " " 
    140 "TREMONT 0   " 115.0000 " "  0  :  1 1.023110  1.023110  -6.390899    1    2 -1.0000 -1.0000   400101   391231   0 0   1 0   0.000000   0.000000     0 0   -1.00000   -1.00000    0.00000 74 "TREMONT"   140 -1 " " 
    141 "PEORIA 4 0  " 115.0000 " "  0  :  1 1.015359  1.015359  -7.521902    1    2 -1.0000 -1.0000   400101   391231   0 0   1 0   0.000000   0.000000     0 0   -1.00000   -1.00000    0.00000 75 "PEORIA 4"   141 -1 " " 
    142 "PEORIA 3 0  " 115.0000 " "  0  :  1 1.014072  1.014072  -7.617783    1    2 -1.0000 -1.0000   400101   391231   0 0   1 0   0.000000   0.000000     0 0   -1.00000   -1.00000    0.00000 76 "PEORIA 3"   142 -1 " " 
    143 "CHAMPAIGN ~9" 115.0000 " "  0  :  1 1.037259  1.037259  -6.549447    1    5 -1.0000 -1.0000   400101   391231   0 0   1 0   0.000000   0.000000     0 0   -1.00000   -1.00000    0.00000 77 "CHAMPAIGN 2"   143 -1 " " 
    144 "EUREKA 0    " 115.0000 " "  0  :  1 1.023639  1.023639  -5.928282    1    2 -1.0000 -1.0000   400101   391231   0 0   1 0   0.000000   0.000000     0 0   -1.00000   -1.00000    0.00000 78 "EUREKA"   144 -1 " " 
    145 "CHATHAM 0   " 115.0000 " "  0  :  1 1.032017  1.032017  -11.164121    1    3 -1.0000 -1.0000   400101   391231   0 0   1 0   0.000000   0.000000     0 0   -1.00000   -1.00000    0.00000 79 "CHATHAM"   145 -1 " " 
    146 "HOPEDALE 2 0" 115.0000 " "  0  :  1 1.033118  1.033118  -4.010275    1    7 -1.0000 -1.0000   400101   391231   0 0   1 0   0.000000   0.000000     0 0   -1.00000   -1.00000    0.00000 80 "HOPEDALE 2"   146 -1 " " 
    147 "HOPEDALE 2 1"  13.8000 " "  0  :  2 1.040000 1.040000  1.000906    1    7 -1.0000 -1.0000   400101   391231   0 0   1 0   0.000000   0.000000     0 0   -1.00000   -1.00000    0.00000 80 "HOPEDALE 2"   147 -1 " " 
    148 "WASHINGTON 0" 115.0000 " "  0  :  1 1.010230  1.010230  -8.189318    1    2 -1.0000 -1.0000   400101   391231   0 0   1 0   0.000000   0.000000     0 0   -1.00000   -1.00000    0.00000 81 "WASHINGTON"   148 -1 " " 
    149 "SPRINGFIEL~8" 230.0000 " "  0  :  1 1.039556  1.039556  -8.879345    1    3 -1.0000 -1.0000   400101   391231   0 0   1 0   0.000000   0.000000     0 0   -1.00000   -1.00000    0.00000 82 "SPRINGFIELD 5"   149 -1 " " 
    150 "SPRINGFIEL~9" 115.0000 " "  0  :  1 1.039664  1.039664  -9.999925    1    3 -1.0000 -1.0000   400101   391231   0 0   1 0   0.000000   0.000000     0 0   -1.00000   -1.00000    0.00000 82 "SPRINGFIELD 5"   150 -1 " " 
    151 "SPRINGFIE~10"  13.8000 " "  0  :  2 1.040000 1.040000  -8.342580    1    3 -1.0000 -1.0000   400101   391231   0 0   1 0   0.000000   0.000000     0 0   -1.00000   -1.00000    0.00000 82 "SPRINGFIELD 5"   151 -1 " " 
    152 "SPRINGFIE~11"  13.8000 " "  0  :  2 1.040000 1.040000  -7.139644    1    3 -1.0000 -1.0000   400101   391231   0 0   1 0   0.000000   0.000000     0 0   -1.00000   -1.00000    0.00000 82 "SPRINGFIELD 5"   152 -1 " " 
    153 "SPRINGFIE~12"  13.8000 " "  0  :  2 1.040000 1.040000  -6.612046    1    3 -1.0000 -1.0000   400101   391231   0 0   1 0   0.000000   0.000000     0 0   -1.00000   -1.00000    0.00000 82 "SPRINGFIELD 5"   153 -1 " " 
    154 "SPRINGFIE~13"  13.8000 " "  0  :  2 1.040000 1.040000  -7.615420    1    3 -1.0000 -1.0000   400101   391231   0 0   1 0   0.000000   0.000000     0 0   -1.00000   -1.00000    0.00000 82 "SPRINGFIELD 5"   154 -1 " " 
    155 "SPRINGFIE~14"  13.8000 " "  0  :  2 1.040000 1.040000  -7.653539    1    3 -1.0000 -1.0000   400101   391231   0 0   1 0   0.000000   0.000000     0 0   -1.00000   -1.00000    0.00000 82 "SPRINGFIELD 5"   155 -1 " " 
    156 "PEORIA 2 0  " 230.0000 " "  0  :  1 1.032103  1.032103  -4.724707    1    2 -1.0000 -1.0000   400101   391231   0 0   1 0   0.000000   0.000000     0 0   -1.00000   -1.00000    0.00000 83 "PEORIA 2"   156 -1 " " 
    157 "PEORIA 2 1  " 115.0000 " "  0  :  1 1.030521  1.030521  -5.439245    1    2 -1.0000 -1.0000   400101   391231   0 0   1 0   0.000000   0.000000     0 0   -1.00000   -1.00000    0.00000 83 "PEORIA 2"   157 -1 " " 
    158 "MT ZION 0   " 115.0000 " "  0  :  1 1.043458  1.043458  -7.900145    1    4 -1.0000 -1.0000   400101   391231   0 0   1 0   0.000000   0.000000     0 0   -1.00000   -1.00000    0.00000 84 "MT ZION"   158 -1 " " 
    159 "BUFFALO 0   " 115.0000 " "  0  :  1 1.026590  1.026590  -10.742416    1    4 -1.0000 -1.0000   400101   391231   0 0   1 0   0.000000   0.000000     0 0   -1.00000   -1.00000    0.00000 85 "BUFFALO"   159 -1 " " 
    160 "SPRINGFIEL~6" 115.0000 " "  0  :  1 1.031147  1.031147  -11.239582    1    4 -1.0000 -1.0000   400101   391231   0 0   1 0   0.000000   0.000000     0 0   -1.00000   -1.00000    0.00000 86 "SPRINGFIELD 4"   160 -1 " " 
    161 "SPRINGFIEL~7"  13.8000 " "  0  :  2 1.040000 1.031147  -11.239582    1    4 -1.0000 -1.0000   400101   391231   0 0   1 0   0.000000   0.000000     0 0   -1.00000   -1.00000    0.00000 86 "SPRINGFIELD 4"   161 -1 " " 
    162 "CONGERVILL~1" 115.0000 " "  0  :  1 1.022579  1.022579  -6.221058    1    2 -1.0000 -1.0000   400101   391231   0 0   1 0   0.000000   0.000000     0 0   -1.00000   -1.00000    0.00000 87 "CONGERVILLE"   162 -1 " " 
    163 "CHAMPAIGN ~1" 115.0000 " "  0  :  1 1.043164  1.043164  -7.926244    1    5 -1.0000 -1.0000   400101   391231   0 0   1 0   0.000000   0.000000     0 0   -1.00000   -1.00000    0.00000 88 "CHAMPAIGN 1"   163 -1 " " 
    164 "CHAMPAIGN ~2"  13.8000 " "  0  :  2 1.040000 1.043164  -7.926244    1    5 -1.0000 -1.0000   400101   391231   0 0   1 0   0.000000   0.000000     0 0   -1.00000   -1.00000    0.00000 88 "CHAMPAIGN 1"   164 -1 " " 
    165 "CHAMPAIGN ~3"  13.8000 " "  0  :  2 1.040000 1.043164  -7.926244    1    5 -1.0000 -1.0000   400101   391231   0 0   1 0   0.000000   0.000000     0 0   -1.00000   -1.00000    0.00000 88 "CHAMPAIGN 1"   165 -1 " " 
    166 "CHAMPAIGN ~4"  13.8000 " "  0  :  2 1.040000 1.043164  -7.926244    1    5 -1.0000 -1.0000   400101   391231   0 0   1 0   0.000000   0.000000     0 0   -1.00000   -1.00000    0.00000 88 "CHAMPAIGN 1"   166 -1 " " 
    167 "CHAMPAIGN ~5"  13.8000 " "  0  :  2 1.040000 1.041472  -7.628263    1    5 -1.0000 -1.0000   400101   391231   0 0   1 0   0.000000   0.000000     0 0   -1.00000   -1.00000    0.00000 88 "CHAMPAIGN 1"   167 -1 " " 
    168 "CHAMPAIGN ~6"  13.8000 " "  0  :  2 1.040000 1.043164  -7.926244    1    5 -1.0000 -1.0000   400101   391231   0 0   1 0   0.000000   0.000000     0 0   -1.00000   -1.00000    0.00000 88 "CHAMPAIGN 1"   168 -1 " " 
    169 "CHAMPAIGN ~7"  13.8000 " "  0  :  2 1.040000 1.043164  -7.926244    1    5 -1.0000 -1.0000   400101   391231   0 0   1 0   0.000000   0.000000     0 0   -1.00000   -1.00000    0.00000 88 "CHAMPAIGN 1"   169 -1 " " 
    170 "CHAMPAIGN ~8"  13.8000 " "  0  :  2 1.040000 1.040000  -7.359358    1    5 -1.0000 -1.0000   400101   391231   0 0   1 0   0.000000   0.000000     0 0   -1.00000   -1.00000    0.00000 88 "CHAMPAIGN 1"   170 -1 " " 
    171 "FISHER 0    " 115.0000 " "  0  :  1 1.029361  1.029361  -5.544471    1    6 -1.0000 -1.0000   400101   391231   0 0   1 0   0.000000   0.000000     0 0   -1.00000   -1.00000    0.00000 89 "FISHER"   171 -1 " " 
    172 "HOMER 0     " 115.0000 " "  0  :  1 1.044662  1.044662  -6.737828    1    5 -1.0000 -1.0000   400101   391231   0 0   1 0   0.000000   0.000000     0 0   -1.00000   -1.00000    0.00000 90 "HOMER"   172 -1 " " 
    173 "TUSCOLA 1 0 " 115.0000 " "  0  :  1 1.043869  1.043869  -7.824896    1    5 -1.0000 -1.0000   400101   391231   0 0   1 0   0.000000   0.000000     0 0   -1.00000   -1.00000    0.00000 91 "TUSCOLA 1"   173 -1 " " 
    174 "WHITE HEAT~1" 115.0000 " "  0  :  1 1.048556  1.048556  -6.975714    1    5 -1.0000 -1.0000   400101   391231   0 0   1 0   0.000000   0.000000     0 0   -1.00000   -1.00000    0.00000 92 "WHITE HEATH"   174 -1 " " 
    175 "TOLONO 0    " 115.0000 " "  0  :  1 1.042508  1.042508  -8.051141    1    5 -1.0000 -1.0000   400101   391231   0 0   1 0   0.000000   0.000000     0 0   -1.00000   -1.00000    0.00000 93 "TOLONO"   175 -1 " " 
    176 "SPRINGFIEL~5" 115.0000 " "  0  :  1 1.034057  1.034057  -10.848998    1    3 -1.0000 -1.0000   400101   391231   0 0   1 0   0.000000   0.000000     0 0   -1.00000   -1.00000    0.00000 94 "SPRINGFIELD 3"   176 -1 " " 
    177 "MACKINAW 0  " 115.0000 " "  0  :  1 1.027908  1.027908  -5.445402    1    7 -1.0000 -1.0000   400101   391231   0 0   1 0   0.000000   0.000000     0 0   -1.00000   -1.00000    0.00000 95 "MACKINAW"   177 -1 " " 
    178 "URBANA 1 0  " 230.0000 " "  0  :  1 1.041493  1.041493  -4.889523    1    5 -1.0000 -1.0000   400101   391231   0 0   1 0   0.000000   0.000000     0 0   -1.00000   -1.00000    0.00000 96 "URBANA 1"   178 -1 " " 
    179 "URBANA 1 1  " 115.0000 " "  0  :  1 1.046228  1.046228  -6.907941    1    5 -1.0000 -1.0000   400101   391231   0 0   1 0   0.000000   0.000000     0 0   -1.00000   -1.00000    0.00000 96 "URBANA 1"   179 -1 " " 
    180 "SAINT JOSE~1" 115.0000 " "  0  :  1 1.045211  1.045211  -7.124937    1    5 -1.0000 -1.0000   400101   391231   0 0   1 0   0.000000   0.000000     0 0   -1.00000   -1.00000    0.00000 97 "SAINT JOSEPH"   180 -1 " " 
    181 "SPRINGFIEL~2" 115.0000 " "  0  :  1 1.033389  1.033389  -11.195233    1    4 -1.0000 -1.0000   400101   391231   0 0   1 0   0.000000   0.000000     0 0   -1.00000   -1.00000    0.00000 98 "SPRINGFIELD 2"   181 -1 " " 
    182 "SPRINGFIEL~3"  13.8000 " "  0  :  2 1.040000 1.040000  -10.374460    1    4 -1.0000 -1.0000   400101   391231   0 0   1 0   0.000000   0.000000     0 0   -1.00000   -1.00000    0.00000 98 "SPRINGFIELD 2"   182 -1 " " 
    183 "SPRINGFIEL~4"  13.8000 " "  0  :  2 1.040000 1.040000  -10.723282    1    4 -1.0000 -1.0000   400101   391231   0 0   1 0   0.000000   0.000000     0 0   -1.00000   -1.00000    0.00000 98 "SPRINGFIELD 2"   183 -1 " " 
    184 "MONTICELLO 0" 115.0000 " "  0  :  1 1.049221  1.049221  -8.289414    1    5 -1.0000 -1.0000   400101   391231   0 0   1 0   0.000000   0.000000     0 0   -1.00000   -1.00000    0.00000 99 "MONTICELLO"   184 -1 " " 
    185 "AUBURN 0    " 115.0000 " "  0  :  1 1.034129  1.034129  -10.871111    1    3 -1.0000 -1.0000   400101   391231   0 0   1 0   0.000000   0.000000     0 0   -1.00000   -1.00000    0.00000 100 "AUBURN"   185 -1 " " 
    186 "HOPEDALE 1 0" 115.0000 " "  0  :  1 1.029468  1.029468  -5.915141    1    2 -1.0000 -1.0000   400101   391231   0 0   1 0   0.000000   0.000000     0 0   -1.00000   -1.00000    0.00000 101 "HOPEDALE 1"   186 -1 " " 
    187 "CLINTON 1 0 " 230.0000 " "  0  :  1 1.041109  1.041109  -1.593510    1    7 -1.0000 -1.0000   400101   391231   0 0   1 0   0.000000   0.000000     0 0   -1.00000   -1.00000    0.00000 102 "CLINTON 1"   187 -1 " " 
    188 "CLINTON 1 1 " 115.0000 " "  0  :  1 1.042227  1.042227  -4.274235    1    7 -1.0000 -1.0000   400101   391231   0 0   1 0   0.000000   0.000000     0 0   -1.00000   -1.00000    0.00000 102 "CLINTON 1"   188 -1 " " 
    189 "CLINTON 1 2 "  13.8000 " "  0  :  0 1.040000 1.040000  0.000000    1    7 -1.0000 -1.0000   400101   391231   0 0   1 0   0.000000   0.000000     0 0   -1.00000   -1.00000    0.00000 102 "CLINTON 1"   189 -1 " " 
    190 "MAHOMET 0   " 115.0000 " "  0  :  1 1.027511  1.027511  -5.607695    1    6 -1.0000 -1.0000   400101   391231   0 0   1 0   0.000000   0.000000     0 0   -1.00000   -1.00000    0.00000 103 "MAHOMET"   190 -1 " " 
    191 "VILLA GROV~1" 115.0000 " "  0  :  1 1.046077  1.046077  -7.762654    1    5 -1.0000 -1.0000   400101   391231   0 0   1 0   0.000000   0.000000     0 0   -1.00000   -1.00000    0.00000 104 "VILLA GROVE"   191 -1 " " 
    192 "BLOOMINGTO~1" 115.0000 " "  0  :  1 1.016628  1.016628  -5.992680    1    7 -1.0000 -1.0000   400101   391231   0 0   1 0   0.000000   0.000000     0 0   -1.00000   -1.00000    0.00000 105 "BLOOMINGTON 1"   192 -1 " " 
    193 "PEORIA 1 0  " 115.0000 " "  0  :  1 1.016475  1.016475  -7.379588    1    2 -1.0000 -1.0000   400101   391231   0 0   1 0   0.000000   0.000000     0 0   -1.00000   -1.00000    0.00000 106 "PEORIA 1"   193 -1 " " 
    194 "SPRINGFIEL~1" 115.0000 " "  0  :  1 1.040083  1.040083  -10.703489    1    3 -1.0000 -1.0000   400101   391231   0 0   1 0   0.000000   0.000000     0 0   -1.00000   -1.00000    0.00000 107 "SPRINGFIELD 1"   194 -1 " " 
    195 "GIBSON CIT~1" 115.0000 " "  0  :  1 1.033260  1.033260  -5.127426    1    6 -1.0000 -1.0000   400101   391231   0 0   1 0   0.000000   0.000000     0 0   -1.00000   -1.00000    0.00000 108 "GIBSON CITY 1"   195 -1 " " 
    196 "GIBSON CIT~2"  13.8000 " "  0  :  2 1.040000 1.033260  -5.127426    1    6 -1.0000 -1.0000   400101   391231   0 0   1 0   0.000000   0.000000     0 0   -1.00000   -1.00000    0.00000 108 "GIBSON CITY 1"   196 -1 " " 
    197 "GIBSON CIT~3"  13.8000 " "  0  :  2 1.040000 1.033260  -5.127426    1    6 -1.0000 -1.0000   400101   391231   0 0   1 0   0.000000   0.000000     0 0   -1.00000   -1.00000    0.00000 108 "GIBSON CITY 1"   197 -1 " " 
    198 "MAPLETON 0  " 115.0000 " "  0  :  1 1.023223  1.023223  -6.849765    1    2 -1.0000 -1.0000   400101   391231   0 0   1 0   0.000000   0.000000     0 0   -1.00000   -1.00000    0.00000 109 "MAPLETON"   198 -1 " " 
    199 "GIFFORD 0   " 115.0000 " "  0  :  1 1.043879  1.043879  -5.721465    1    6 -1.0000 -1.0000   400101   391231   0 0   1 0   0.000000   0.000000     0 0   -1.00000   -1.00000    0.00000 110 "GIFFORD"   199 -1 " " 
    200 "PETERSBURG 0" 115.0000 " "  0  :  1 1.025915  1.025915  -9.367606    1    4 -1.0000 -1.0000   400101   391231   0 0   1 0   0.000000   0.000000     0 0   -1.00000   -1.00000    0.00000 111 "PETERSBURG"   200 -1 " " 
branch data  [  179]                                          ck  se  ------------long_id_------------    st resist   react   charge   rate1  rate2  rate3  rate4 aloss  lngth 
      1 "CREVE COEU~1" 115.00     119 "METAMORA 0  " 115.00  "1 "   1 " "  :  1  0.018542  0.119758  0.022848  221.1    0.0    0.0    0.0 0.000    0.0 /
   1    2  0.000000  0.000000  1.000000   400101   391231   0 1  0    0.0    0.0    0.0    0.0   1 1.000   0 0.000   0 0.000   0 0.000   0 0.000   0 0.000   0 0.000   0 0.000  0 0  0  0  0  90.000 
      2 "CREVE COEU~2" 115.00       1 "CREVE COEU~1" 115.00  "1 "   1 " "  :  1  0.000673  0.003339  0.000000  100.0    0.0    0.0    0.0 0.000    0.0 /
   1    2  0.000000  0.000000  1.000000   400101   391231   0 1  0    0.0    0.0    0.0    0.0   1 1.000   0 0.000   0 0.000   0 0.000   0 0.000   0 0.000   0 0.000   0 0.000  0 0  0  0  0  90.000 
      3 "ILLIOPOLIS 0" 115.00     137 "NIANTIC 0   " 115.00  "1 "   1 " "  :  1  0.005889  0.038035  0.007256  221.1    0.0    0.0    0.0 0.000    0.0 /
   1    4  0.000000  0.000000  1.000000   400101   391231   0 1  0    0.0    0.0    0.0    0.0   1 1.000   0 0.000   0 0.000   0 0.000   0 0.000   0 0.000   0 0.000   0 0.000  0 0  0  0  0  90.000 
      4 "ILLIOPOLIS 1" 115.00       3 "ILLIOPOLIS 0" 115.00  "1 "   1 " "  :  1  0.000573  0.003303  0.000000  100.0    0.0    0.0    0.0 0.000    0.0 /
   1    4  0.000000  0.000000  1.000000   400101   391231   0 1  0    0.0    0.0    0.0    0.0   1 1.000   0 0.000   0 0.000   0 0.000   0 0.000   0 0.000   0 0.000   0 0.000  0 0  0  0  0  90.000 
      5 "PAXTON 2 0  " 115.00      64 "PAXTON 1 0  " 115.00  "1 "   1 " "  :  1  0.007877  0.054875  0.008970  221.1    0.0    0.0    0.0 0.000    0.0 /
   1    6  0.000000  0.000000  1.000000   400101   391231   0 1  0    0.0    0.0    0.0    0.0   1 1.000   0 0.000   0 0.000   0 0.000   0 0.000   0 0.000   0 0.000   0 0.000  0 0  0  0  0  90.000 
      6 "PAXTON 2 1  " 115.00       5 "PAXTON 2 0  " 115.00  "1 "   1 " "  :  1  0.000694  0.003337  0.000000  100.0    0.0    0.0    0.0 0.000    0.0 /
   1    6  0.000000  0.000000  1.000000   400101   391231   0 1  0    0.0    0.0    0.0    0.0   1 1.000   0 0.000   0 0.000   0 0.000   0 0.000   0 0.000   0 0.000   0 0.000  0 0  0  0  0  90.000 
      7 "PEORIA 9 0  " 115.00      86 "PEORIA HEI~1" 115.00  "1 "   1 " "  :  1  0.003756  0.024259  0.004628  221.1    0.0    0.0    0.0 0.000    0.0 /
   1    2  0.000000  0.000000  1.000000   400101   391231   0 1  0    0.0    0.0    0.0    0.0   1 1.000   0 0.000   0 0.000   0 0.000   0 0.000   0 0.000   0 0.000   0 0.000  0 0  0  0  0  90.000 
      7 "PEORIA 9 0  " 115.00     101 "PEORIA 7 0  " 115.00  "1 "   1 " "  :  1  0.003597  0.023232  0.004432  221.1    0.0    0.0    0.0 0.000    0.0 /
   1    2  0.000000  0.000000  1.000000   400101   391231   0 1  0    0.0    0.0    0.0    0.0   1 1.000   0 0.000   0 0.000   0 0.000   0 0.000   0 0.000   0 0.000   0 0.000  0 0  0  0  0  90.000 
      7 "PEORIA 9 0  " 115.00     148 "WASHINGTON 0" 115.00  "1 "   1 " "  :  1  0.008667  0.055980  0.010680  221.1    0.0    0.0    0.0 0.000    0.0 /
   1    2  0.000000  0.000000  1.000000   400101   391231   0 1  0    0.0    0.0    0.0    0.0   1 1.000   0 0.000   0 0.000   0 0.000   0 0.000   0 0.000   0 0.000   0 0.000  0 0  0  0  0  90.000 
      8 "PEORIA 9 1  " 115.00       7 "PEORIA 9 0  " 115.00  "1 "   1 " "  :  1  0.000634  0.003189  0.000000  100.0    0.0    0.0    0.0 0.000    0.0 /
   1    2  0.000000  0.000000  1.000000   400101   391231   0 1  0    0.0    0.0    0.0    0.0   1 1.000   0 0.000   0 0.000   0 0.000   0 0.000   0 0.000   0 0.000   0 0.000  0 0  0  0  0  90.000 
      9 "PEORIA 8 0  " 115.00     124 "BARTONVILL~2" 115.00  "1 "   1 " "  :  1  0.008069  0.055123  0.009378  221.1    0.0    0.0    0.0 0.000    0.0 /
   1    2  0.000000  0.000000  1.000000   400101   391231   0 1  0    0.0    0.0    0.0    0.0   1 1.000   0 0.000   0 0.000   0 0.000   0 0.000   0 0.000   0 0.000   0 0.000  0 0  0  0  0  90.000 
      9 "PEORIA 8 0  " 115.00     141 "PEORIA 4 0  " 115.00  "1 "   1 " "  :  1  0.004446  0.030970  0.005063  221.1    0.0    0.0    0.0 0.000    0.0 /
   1    2  0.000000  0.000000  1.000000   400101   391231   0 1  0    0.0    0.0    0.0    0.0   1 1.000   0 0.000   0 0.000   0 0.000   0 0.000   0 0.000   0 0.000   0 0.000  0 0  0  0  0  90.000 
      9 "PEORIA 8 0  " 115.00     193 "PEORIA 1 0  " 115.00  "1 "   1 " "  :  1  0.003695  0.025244  0.004295  221.1    0.0    0.0    0.0 0.000    0.0 /
   1    2  0.000000  0.000000  1.000000   400101   391231   0 1  0    0.0    0.0    0.0    0.0   1 1.000   0 0.000   0 0.000   0 0.000   0 0.000   0 0.000   0 0.000   0 0.000  0 0  0  0  0  90.000 
     10 "PEORIA 8 1  " 115.00       9 "PEORIA 8 0  " 115.00  "1 "   1 " "  :  1  0.000585  0.003967  0.000000  100.0    0.0    0.0    0.0 0.000    0.0 /
   1    2  0.000000  0.000000  1.000000   400101   391231   0 1  0    0.0    0.0    0.0    0.0   1 1.000   0 0.000   0 0.000   0 0.000   0 0.000   0 0.000   0 0.000   0 0.000  0 0  0  0  0  90.000 
     11 "LOVINGTON 0 " 115.00      15 "DECATUR 3 1 " 115.00  "1 "   1 " "  :  1  0.010408  0.067220  0.012824  221.1    0.0    0.0    0.0 0.000    0.0 /
   1    4  0.000000  0.000000  1.000000   400101   391231   0 1  0    0.0    0.0    0.0    0.0   1 1.000   0 0.000   0 0.000   0 0.000   0 0.000   0 0.000   0 0.000   0 0.000  0 0  0  0  0  90.000 
     11 "LOVINGTON 0 " 115.00      93 "TUSCOLA 2 0 " 115.00  "1 "   1 " "  :  1  0.018394  0.128141  0.020947  221.1    0.0    0.0    0.0 0.000    0.0 /
   1    4  0.000000  0.000000  1.000000   400101   391231   0 1  0    0.0    0.0    0.0    0.0   1 1.000   0 0.000   0 0.000   0 0.000   0 0.000   0 0.000   0 0.000   0 0.000  0 0  0  0  0  90.000 
     12 "LOVINGTON 1 " 115.00      11 "LOVINGTON 0 " 115.00  "1 "   1 " "  :  1  0.000534  0.003533  0.000000  100.0    0.0    0.0    0.0 0.000    0.0 /
   1    4  0.000000  0.000000  1.000000   400101   391231   0 1  0    0.0    0.0    0.0    0.0   1 1.000   0 0.000   0 0.000   0 0.000   0 0.000   0 0.000   0 0.000   0 0.000  0 0  0  0  0  90.000 
     13 "LOVINGTON 2 " 115.00      11 "LOVINGTON 0 " 115.00  "1 "   1 " "  :  1  0.000619  0.003606  0.000000  100.0    0.0    0.0    0.0 0.000    0.0 /
   1    4  0.000000  0.000000  1.000000   400101   391231   0 1  0    0.0    0.0    0.0    0.0   1 1.000   0 0.000   0 0.000   0 0.000   0 0.000   0 0.000   0 0.000   0 0.000  0 0  0  0  0  90.000 
     14 "DECATUR 3 0 " 230.00     121 "CLINTON 2 0 " 230.00  "1 "   1 " "  :  1  0.007013  0.050098  0.091337  402.4    0.0    0.0    0.0 0.000    0.0 /
   1    7  0.000000  0.000000  1.000000   400101   391231   0 1  0    0.0    0.0    0.0    0.0   1 1.000   0 0.000   0 0.000   0 0.000   0 0.000   0 0.000   0 0.000   0 0.000  0 0  0  0  0  90.000 
     14 "DECATUR 3 0 " 230.00     149 "SPRINGFIEL~8" 230.00  "1 "   1 " "  :  1  0.009133  0.065244  0.118949  402.4    0.0    0.0    0.0 0.000    0.0 /
   1    3  0.000000  0.000000  1.000000   400101   391231   0 1  0    0.0    0.0    0.0    0.0   1 1.000   0 0.000   0 0.000   0 0.000   0 0.000   0 0.000   0 0.000   0 0.000  0 0  0  0  0  90.000 
     16 "DECATUR 3 2 " 115.00      15 "DECATUR 3 1 " 115.00  "1 "   1 " "  :  1  0.000553  0.003200  0.000000  100.0    0.0    0.0    0.0 0.000    0.0 /
   1    4  0.000000  0.000000  1.000000   400101   391231   0 1  0    0.0    0.0    0.0    0.0   1 1.000   0 0.000   0 0.000   0 0.000   0 0.000   0 0.000   0 0.000   0 0.000  0 0  0  0  0  90.000 
     17 "MASON CITY 0" 115.00     120 "GREENVIEW 0 " 115.00  "1 "   1 " "  :  1  0.010316  0.070473  0.011990  221.1    0.0    0.0    0.0 0.000    0.0 /
   1    4  0.000000  0.000000  1.000000   400101   391231   0 1  0    0.0    0.0    0.0    0.0   1 1.000   0 0.000   0 0.000   0 0.000   0 0.000   0 0.000   0 0.000   0 0.000  0 0  0  0  0  90.000 
     18 "MASON CITY 1" 115.00      17 "MASON CITY 0" 115.00  "1 "   1 " "  :  1  0.000503  0.003926  0.000000  100.0    0.0    0.0    0.0 0.000    0.0 /
   1    4  0.000000  0.000000  1.000000   400101   391231   0 1  0    0.0    0.0    0.0    0.0   1 1.000   0 0.000   0 0.000   0 0.000   0 0.000   0 0.000   0 0.000   0 0.000  0 0  0  0  0  90.000 
     19 "MASON CITY 2" 115.00      17 "MASON CITY 0" 115.00  "1 "   1 " "  :  1  0.000514  0.003079  0.000000  100.0    0.0    0.0    0.0 0.000    0.0 /
   1    4  0.000000  0.000000  1.000000   400101   391231   0 1  0    0.0    0.0    0.0    0.0   1 1.000   0 0.000   0 0.000   0 0.000   0 0.000   0 0.000   0 0.000   0 0.000  0 0  0  0  0  90.000 
     20 "MASON CITY 3" 115.00      17 "MASON CITY 0" 115.00  "1 "   1 " "  :  1  0.000623  0.003339  0.000000  100.0    0.0    0.0    0.0 0.000    0.0 /
   1    4  0.000000  0.000000  1.000000   400101   391231   0 1  0    0.0    0.0    0.0    0.0   1 1.000   0 0.000   0 0.000   0 0.000   0 0.000   0 0.000   0 0.000   0 0.000  0 0  0  0  0  90.000 
     21 "MASON CITY 4" 115.00      17 "MASON CITY 0" 115.00  "1 "   1 " "  :  1  0.000620  0.003940  0.000000  100.0    0.0    0.0    0.0 0.000    0.0 /
...